  
       XFOIL         Version 6.99
  
 Calculated polar for: NACA 65(1)412                                   
  
 1 1 Reynolds number fixed          Mach number fixed         
  
 xtrf =   1.000 (top)        1.000 (bottom)  
 Mach =   0.012     Re =     0.100 e 6     Ncrit =   5.000
  
   alpha    CL        CD       CDp       CM     Top_Xtr  Bot_Xtr
  ------ -------- --------- --------- -------- -------- --------
  -8.000  -0.4834   0.05120   0.04506  -0.0702   0.9579   0.0143
  -7.000  -0.4627   0.03743   0.02996  -0.0682   0.9265   0.0171
  -6.000  -0.3561   0.03055   0.02204  -0.0717   0.9086   0.0238
  -5.000  -0.2587   0.02549   0.01633  -0.0718   0.8882   0.0350
  -4.000  -0.1527   0.02104   0.01131  -0.0707   0.8650   0.0460
  -3.000  -0.0355   0.01808   0.00820  -0.0730   0.8504   0.1004
  -2.000   0.0106   0.01702   0.00964  -0.0591   0.8229   0.7432
  -1.000   0.1191   0.01733   0.00961  -0.0570   0.8069   0.7976
   0.000   0.2035   0.01759   0.00976  -0.0527   0.7841   0.8220
   1.000   0.3047   0.01780   0.00991  -0.0521   0.7654   0.8506
   2.000   0.4291   0.01771   0.00986  -0.0546   0.7510   0.8770
   3.000   0.4808   0.01900   0.01146  -0.0458   0.7244   0.9193
   4.000   0.6245   0.01854   0.01132  -0.0519   0.7058   0.9555
   5.000   0.7621   0.01599   0.00888  -0.0540   0.5929   1.0000
   6.000   0.7440   0.01930   0.00979  -0.0325   0.1704   1.0000
   7.000   0.7584   0.02407   0.01376  -0.0197   0.0412   1.0000
   8.000   0.7974   0.02977   0.02042  -0.0106   0.0264   1.0000
   9.000   0.9323   0.03937   0.03076  -0.0150   0.0241   1.0000
