  
       XFOIL         Version 6.99
  
 Calculated polar for: NACA 65(1)412                                   
  
 1 1 Reynolds number fixed          Mach number fixed         
  
 xtrf =   1.000 (top)        1.000 (bottom)  
 Mach =   0.000     Re =     0.100 e 6     Ncrit =   5.000
  
   alpha    CL        CD       CDp       CM     Top_Xtr  Bot_Xtr
  ------ -------- --------- --------- -------- -------- --------
  -9.000  -0.4510   0.06886   0.06360  -0.0607   0.9961   0.0144
  -8.000  -0.4835   0.05118   0.04505  -0.0702   0.9579   0.0143
  -7.000  -0.4627   0.03741   0.02995  -0.0681   0.9266   0.0171
  -6.000  -0.3561   0.03054   0.02203  -0.0717   0.9087   0.0238
  -5.000  -0.2586   0.02548   0.01633  -0.0718   0.8882   0.0350
  -4.000  -0.1527   0.02104   0.01131  -0.0707   0.8651   0.0460
  -3.000  -0.0354   0.01808   0.00819  -0.0730   0.8504   0.1006
  -1.000   0.1191   0.01733   0.00961  -0.0570   0.8069   0.7976
   0.000   0.2035   0.01759   0.00975  -0.0527   0.7842   0.8220
   1.000   0.3047   0.01780   0.00991  -0.0521   0.7654   0.8506
   2.000   0.4291   0.01771   0.00986  -0.0546   0.7510   0.8770
   3.000   0.4809   0.01900   0.01145  -0.0458   0.7245   0.9193
   4.000   0.6245   0.01854   0.01132  -0.0519   0.7058   0.9555
   5.000   0.7621   0.01598   0.00887  -0.0540   0.5929   1.0000
   6.000   0.7441   0.01930   0.00979  -0.0325   0.1706   1.0000
   7.000   0.7585   0.02407   0.01376  -0.0198   0.0412   1.0000
   8.000   0.7974   0.02977   0.02042  -0.0106   0.0264   1.0000
   9.000   0.9324   0.03937   0.03076  -0.0151   0.0241   1.0000
